 18

H 1.150 -2.587 -0.756
H 1.685 -1.202 -0.302
H -1.611 0.247 -1.245
H -0.265 -0.436 -1.507
H 0.499 2.694 0.201
H 0.067 1.373 -0.513
H -0.283 0.363 1.493
H -0.201 -1.097 1.086
H 3.296 0.102 0.900
H 2.149 0.842 0.181
H -3.648 -0.568 0.156
H -2.257 -0.248 0.763
O 0.864 -1.714 -0.473
O -0.731 0.406 -1.637
O 0.590 1.739 0.250
O -0.702 -0.495 1.659
O 2.796 0.113 0.080
O -2.890 0.015 0.063
